!!>>>>>>>>>>>>>>>>>>>>>>>>>>>>>>>>>>>>>>>>>>>>>>>>>>>>>>>>>>>>>>>>>>>>>>
!! NEMO/OCE  Configuration namelist : overwrite default values defined in SHARED/namelist_ref
!!>>>>>>>>>>>>>>>>>>>>>>>>>>>>>>>>>>>>>>>>>>>>>>>>>>>>>>>>>>>>>>>>>>>>>>
!                         AGRIF ICE configuration                      !
!!======================================================================
!!              ***  Domain & Run management namelists  ***           !!
!!                                                                    !!
!!   namrun       parameters of the run
!!   namdom       space and time domain
!!   namcfg       parameters of the configuration                       (default: user defined GYRE)
!!   namwad       Wetting and drying                                    (default: OFF)
!!   namtsd       data: temperature & salinity                          (default: OFF)
!!   namcrs       coarsened grid (for outputs and/or TOP)               (ln_crs =T)
!!   namc1d       1D configuration options                              ("key_c1d")
!!   namc1d_dyndmp 1D newtonian damping applied on currents             ("key_c1d")
!!   namc1d_uvd   1D data (currents)                                    ("key_c1d")
!!======================================================================
!
!-----------------------------------------------------------------------
&namrun        !   parameters of the run
!-----------------------------------------------------------------------
   cn_exp      = "ORCA025L75"  !  experience name
   nn_it000    =   1           !  first time step
   nn_itend    =  960          !  last  time step
   nn_date0    =  20000101     !  date at nit_0000 (format yyyymmdd) used if ln_rstart=F or (ln_rstart=T and nn_rstctl=0 or 1)
   nn_leapy    =       0       !  Leap year calendar (1) or not (0)
   nn_istate   =       0       !  output the initial state (1) or not (0)
   ln_rstart   =   .false.     !  start from rest (F) or from a restart file (T)
   nn_rstctl   =    1          !  restart control ==> activated only if ln_rstart=T
   cn_ocerst_in  = "restart"   !  suffix of ocean restart name (input)
   cn_ocerst_indir = "."       !  directory from which to read input ocean restarts
   cn_ocerst_out = "restart"   !  suffix of ocean restart name (output)
   cn_ocerst_outdir = "."      !  directory in which to write output ocean restarts
   nn_stock    =  960          !  frequency of creation of a restart file (modulo referenced to 1)
   ln_clobber  = .true.        !  clobber (overwrite) an existing file
/
!-----------------------------------------------------------------------
&namdom        !   time and space domain
!-----------------------------------------------------------------------
   ln_linssh   = .false.    !  =T  linear free surface  ==>>  model level are fixed in time
   !
   !rn_Dt      = 900        !  time step for the dynamics and tracer
   rn_Dt      = 1200        !  time step for the dynamics and tracer
   rn_atfp     =    0.1    !  asselin time filter parameter
   !
   ln_meshmask = .false.   !  =T create a mesh file
/
!-----------------------------------------------------------------------
&namcfg        !   parameters of the configuration                      (default: user defined GYRE)
!-----------------------------------------------------------------------
   ln_read_cfg = .true.     !  (=T) read the domain configuration file
      !                      !  (=F) user defined configuration           (F => create/check namusr_def)
      cn_domcfg = "ORCA025L75_domain_cfg"  ! domain configuration filename
      !
      ln_closea    = .false. !  (=T => fill namclo)
      !                      !  (=F) no control of net precip/evap over closed sea
/
!-----------------------------------------------------------------------
&namtile        !   parameters of the tiling
!-----------------------------------------------------------------------
   ln_tile = .false.     !  Use tiling (T) or not (F)
/
!-----------------------------------------------------------------------
&namclo        !   parameters of the closed sea (cs) behavior                (default: OFF)
!-----------------------------------------------------------------------
   ln_maskcs = .false.        ! (=T) cs are masked ; So, in this case ln_mask_csundef and ln_clo_rnf have no effect.
      !                       ! (=F => set ln_mask_csundef and ln_clo_rnf)
      !                       ! cs masks are read and net evap/precip over closed sea spread out depending on domain_cfg.nc masks.
      !                       ! See ln_mask_csundef and ln_clo_rnf for specific option related to this case
      !
      ln_mask_csundef = .true.   ! (=T) undefined closed seas are masked ;
      !                          ! (=F) undefined closed seas are kept and no specific treatment is done for these closed seas
      !
      ln_clo_rnf = .true.        ! (=T) river mouth specified in domain_cfg.nc masks (rnf and emp case) are added to the runoff mask.
      !                          !      allow the treatment of closed sea outflow grid-points to be the same as river mouth grid-points
/
!-----------------------------------------------------------------------
&namtsd        !    Temperature & Salinity Data                         (default: OFF)
!-----------------------------------------------------------------------
   !                       ! =T  read T-S fields for:
   ln_tsd_init = .true.          !  ocean initialisation
   ln_tsd_dmp  = .false.         !  T-S restoring   (see namtra_dmp)

   cn_dir = './'     !  root directory for the T-S data location
   !___________!____________________________!___________________!___________!_____________!________!___________!__________________!__________!_______________!
   !           !  file name                 ! frequency (hours) ! variable  ! time interp.!  clim  ! 'yearly'/ ! weights filename ! rotation ! land/sea mask !
   !           !                            !  (if <0  months)  !   name    !   (logical) !  (T/F) ! 'monthly' !                  ! pairing  !    filename   !
   sn_tem = 'ORCA025L75_woa18_thetao_nomask',     -12            ,'thetao'   ,   .true.    , .true. , 'yearly'  ,    ''    ,    ''    ,    ''
   sn_sal = 'ORCA025L75_woa18_so_nomask'    ,     -12            ,'so'       ,   .true.    , .true. , 'yearly'  ,    ''    ,    ''    ,    ''
/
!!======================================================================
!!            ***  Surface Boundary Condition namelists  ***          !!
!!                                                                    !!
!!   namsbc          surface boundary condition manager                 (default: NO selection)
!!   namsbc_flx      flux               formulation                     (ln_flx     =T)
!!   namsbc_blk      Bulk formulae formulation                          (ln_blk     =T)
!!   namsbc_cpl      CouPLed            formulation                     ("key_oasis3" )
!!   namsbc_sas      Stand-Alone Surface module                         (SAS_SRC  only)
!!   namtra_qsr      penetrative solar radiation                        (ln_traqsr  =T)
!!   namsbc_rnf      river runoffs                                      (ln_rnf     =T)
!!   namsbc_isf      ice shelf melting/freezing                         (ln_isfcav  =T : read (ln_read_cfg=T) or set or usr_def_zgr )
!!   namsbc_iscpl    coupling option between land ice model and ocean   (ln_isfcav  =T)
!!   namsbc_apr      Atmospheric Pressure                               (ln_apr_dyn =T)
!!   namsbc_ssr      sea surface restoring term (for T and/or S)        (ln_ssr     =T)
!!   namsbc_wave     external fields from wave model                    (ln_wave    =T)
!!   namberg         iceberg floats                                     (ln_icebergs=T)
!!======================================================================
!
!-----------------------------------------------------------------------
&namsbc        !   Surface Boundary Condition manager                   (default: NO selection)
!-----------------------------------------------------------------------
   nn_fsbc     = 1         !  frequency of SBC module call
                           !     (also = the frequency of sea-ice & iceberg model call)
                     ! Type of air-sea fluxes 
   ln_cpl      = .true.   !  atmosphere coupled   formulation          ( requires key_oasis3 )
   ln_blk      = .false.    !  Bulk formulation                          (T => fill namsbc_blk )
                     ! Sea-ice :
   nn_ice      = 2         !  =2 or 3 automatically for SI3 or CICE    ("key_si3" or "key_cice")
                           !          except in AGRIF zoom where it has to be specified
                     ! Misc. options of sbc : 
   ln_traqsr   = .true.    !  Light penetration in the ocean            (T => fill namtra_qsr)
   ln_rnf      = .true.    !  runoffs                                   (T => fill namsbc_rnf)
   ln_ssr      = .false.   !  Sea Surface Restoring on T and/or S       (T => fill namsbc_ssr)
   nn_fwb      = 1         !  FreshWater Budget: =0 unchecked
      !                    !     =1 global mean of e-p-r set to zero at each time step
      !                    !     =2 annual global mean of e-p-r set to zero
/
!-----------------------------------------------------------------------
&namsbc_blk   !   namsbc_blk  generic Bulk formula                      (ln_blk =T)
!-----------------------------------------------------------------------
   !                    !  bulk algorithm :
   !ln_NCAR    = .false.
   ln_ECMWF    = .true.
      rn_zqt       = 2.     !  Air temperature & humidity reference height (m)
   !
   ln_crt_fbk = .true.     !  Add surface current feedback to the wind stress (Renault et al. 2020, doi: 10.1029/2019MS001715)
         rn_stau_a = -2.9e-3   !     Alpha from eq. 10: Stau = Alpha * Wnd + Beta
         rn_stau_b =  8.0e-3   !     Beta
   !
   ln_humi_sph = .true.  !  humidity "sn_humi" is specific humidity  [kg/kg]
   !!
   !! Bulk transfer coefficients over sea-ice: (relevant IF: nn_ice >=1 )
   ln_Cx_ice_cst = .true.     ! use constant ice-air bulk transfer coefficients (value given below)
      rn_Cd_i  = 1.4e-3       ! sea-ice drag coefficient
      rn_Ce_i  = 1.4e-3       !    "    sublimation coefficient
      rn_Ch_i  = 1.4e-3       !    "    sensible heat flux coefficient
   !
   cn_dir = './'  !  root directory for the bulk data location

!---------------------------------------------------------
!              !   file name    ! frequency (hours) ! variable ! time interpol. !  clim   ! 'yearly'/ ! weights              ! rotation !
!              !                !  (if <0  months)  !   name   !    (logical)   !  (T/F)  ! 'monthly' ! filename             ! pairing  !

   sn_wndi     = 'Era5_u10m'    ,         1         , 'u10m'   ,     .false.    , .false. , 'monthly' , 'ORCA025L75_ERA5_wgt_bicubic'  , 'Uwnd'
   sn_wndj     = 'Era5_v10m'    ,         1         , 'v10m'   ,     .false.    , .false. , 'monthly' , 'ORCA025L75_ERA5_wgt_bicubic'  , 'Vwnd'
   sn_qsr      = 'Era5_swrd'    ,         1         , 'swrd'   ,     .false.    , .false. , 'monthly' , 'ORCA025L75_ERA5_wgt_bilinear' , ''
   sn_qlw      = 'Era5_lwrd'    ,         1         , 'lwrd'   ,     .false.    , .false. , 'monthly' , 'ORCA025L75_ERA5_wgt_bilinear' , ''
   sn_tair     = 'Era5_t2m'     ,         1         , 't2m'    ,     .false.    , .false. , 'monthly' , 'ORCA025L75_ERA5_wgt_bilinear' , ''
   sn_humi     = 'Era5_q2m'     ,         1         , 'q2m'    ,     .false.    , .false. , 'monthly' , 'ORCA025L75_ERA5_wgt_bilinear' , ''
   sn_prec     = 'Era5_precip'  ,         1         , 'precip' ,     .false.    , .false. , 'monthly' , 'ORCA025L75_ERA5_wgt_bilinear' , ''
   sn_snow     = 'Era5_snow'    ,         1         , 'snow'   ,     .false.    , .false. , 'monthly' , 'ORCA025L75_ERA5_wgt_bilinear' , ''
   sn_slp      = 'Era5_mslp'    ,         1         , 'mslp'   ,     .false.    , .false. , 'monthly' , 'ORCA025L75_ERA5_wgt_bilinear' , ''       
/
!-----------------------------------------------------------------------
&namtra_qsr    !   penetrative solar radiation                          (ln_traqsr =T)
!-----------------------------------------------------------------------
   !                       !  type of penetration                        (default: NO selection)
   ln_qsr_rgb  = .true.       !  RGB light penetration (Red-Green-Blue)
   ln_qsr_2bd  = .false.      !  2BD light penetration (two bands)
   !
   nn_chldta   =      1       !  RGB : Chl data (=1) or cst value (=0)
   !
   cn_dir      = './'  !  root directory for the chlorophyl data location
   !___________!__________________________________!___________________!___________!_____________!________!___________!__________________!__________!_______________!
   !           !  file name                       ! frequency (hours) ! variable  ! time interp.!  clim  ! 'yearly'/ ! weights filename ! rotation ! land/sea mask !
   !           !                                  !  (if <0  months)  !   name    !   (logical) !  (T/F) ! 'monthly' !                  ! pairing  !    filename   !
   sn_chl      = 'ORCA025L75_ESACCIv4_chl_nomask' ,       -1          ,   'chl'   ,    .true.   , .true. , 'yearly'  , '' , '' , ''
/
!-----------------------------------------------------------------------
&namsbc_ssr    !   surface boundary condition : sea surface restoring   (ln_ssr =T)
!-----------------------------------------------------------------------
/
!-----------------------------------------------------------------------
&namsbc_rnf    !   runoffs                                              (ln_rnf =T)
!-----------------------------------------------------------------------
   ln_rnf_mouth = .false.   !  specific treatment at rivers mouths
      rn_hrnf     =  15.e0     !  depth over which enhanced vertical mixing is used    (ln_rnf_mouth=T)
      rn_avt_rnf  =   1.e-3    !  value of the additional vertical mixing coef. [m2/s] (ln_rnf_mouth=T)
   rn_rfact     =   1.e0    !  multiplicative factor for runoff
   ln_rnf_tem   = .false.   !  read in temperature information for runoff
   ln_rnf_sal   = .false.   !  read in salinity information for runoff
   ln_rnf_depth = .false.    !  read in depth information for runoff
   !
   cn_dir = './'  !  root directory for the location of the runoff files
   !___________!_____________!___________________!___________!_____________!_________!___________!__________!__________!_______________!
   !           !  file name  ! frequency (hours) ! variable  ! time interp. !  clim  ! 'yearly'/ ! weights  ! rotation ! land/sea mask !
   !           !             !  (if <0  months)  !   name    !   (logical)  !  (T/F) ! 'monthly' ! filename ! pairing  ! filename      !
   sn_rnf      = 'ORCA025L75-Dai2009_runoff',    -1    , 'runoff',   .true.     , .true. , 'yearly'  , ''       , ''       , ''
/
!-----------------------------------------------------------------------
&namsbc_apr    !   Atmospheric pressure used as ocean forcing           (ln_apr_dyn =T)
!-----------------------------------------------------------------------
/
!-----------------------------------------------------------------------
&namsbc_wave   ! External fields from wave model                        (ln_wave=T)
!-----------------------------------------------------------------------
/
!-----------------------------------------------------------------------
&namberg       !   iceberg parameters                                   (default: OFF)
!-----------------------------------------------------------------------
   ln_icebergs = .false.      ! activate iceberg floats (force =F with "key_agrif")
/
!-----------------------------------------------------------------------
&namsbc_fwb    !   freshwater-budget adjustment                         (nn_fwb > 0)
!-----------------------------------------------------------------------
   rn_fwb0     = 0.0          ! Initial freshwater adjustment flux [kg/m2/s] (nn_fwb = 2)
/
!!======================================================================
!!               ***  Lateral boundary condition  ***                 !!
!!                                                                    !!
!!   namlbc        lateral momentum boundary condition                  (default: NO selection)
!!   namagrif      agrif nested grid ( read by child model only )       ("key_agrif")
!!   nam_tide      Tidal forcing                                        (default: OFF)
!!   nambdy        Unstructured open boundaries                         (default: OFF)
!!   nambdy_dta    Unstructured open boundaries - external data         (see  nambdy)
!!   nambdy_tide   tidal forcing at open boundaries                     (default: OFF)
!!======================================================================
!-----------------------------------------------------------------------
&namlbc        !   lateral momentum boundary condition                  (default: NO selection)
!-----------------------------------------------------------------------
   rn_shlat    =    0.5     !  no slip
/
!-----------------------------------------------------------------------
&namagrif      !  AGRIF zoom                                            ("key_agrif")
!-----------------------------------------------------------------------
/
!-----------------------------------------------------------------------
&nam_tide      !   tide parameters                                      (default: OFF)
!-----------------------------------------------------------------------
   ln_tide     = .false.      ! Activate tides
/
!!======================================================================
!!                ***  Top/Bottom boundary condition  ***             !!
!!                                                                    !!
!!   namdrg        top/bottom drag coefficient                          (default: NO selection)
!!   namdrg_top    top    friction                                      (ln_OFF=F & ln_isfcav=T)
!!   namdrg_bot    bottom friction                                      (ln_OFF=F)
!!   nambbc        bottom temperature boundary condition                (default: OFF)
!!   nambbl        bottom boundary layer scheme                         (default: OFF)
!!======================================================================
!
!-----------------------------------------------------------------------
&namdrg        !   top/bottom drag coefficient                          (default: NO selection)
!-----------------------------------------------------------------------
   ln_non_lin  = .true.   !  non-linear  drag: Cd = Cd0 |U|
/
!-----------------------------------------------------------------------
&namdrg_top    !   TOP friction                                         (ln_drg_OFF =F & ln_isfcav=T)
!-----------------------------------------------------------------------
   rn_Cd0      =  1.e-3    !  drag coefficient [-]
/
!-----------------------------------------------------------------------
&namdrg_bot    !   BOTTOM friction                                      (ln_drg_OFF =F)
!-----------------------------------------------------------------------
/
!-----------------------------------------------------------------------
&nambbc        !   bottom temperature boundary condition                (default: OFF)
!-----------------------------------------------------------------------
   ln_trabbc   = .true.   !  Apply a geothermal heating at the ocean bottom
      nn_geoflx     = 2       !  geothermal heat flux: = 1 constant flux
      !                       !                        = 2 read variable flux [mW/m2]
      rn_geoflx_cst = 86.4e-3 !  Constant value of geothermal heat flux       [mW/m2]

   cn_dir      = './'      !  root directory for the geothermal data location
   !___________!_________________________!___________________!___________!_____________!________!___________!__________________!__________!_______________!
   !           !  file name              ! frequency (hours) ! variable  ! time interp.!  clim  ! 'yearly'/ ! weights filename ! rotation ! land/sea mask !
   !           !                         !  (if <0  months)  !   name    !   (logical) !  (T/F) ! 'monthly' !                  ! pairing  !    filename   !
   sn_qgh      ='ORCA025L75_Goutorbe2011_heatflow_nomask'  ,       -12.        , 'heatflow',   .false.   , .true. , 'yearly'  ,   ''             ,   ''     ,   ''
/
!-----------------------------------------------------------------------
&nambbl        !   bottom boundary layer scheme                         (default: OFF)
!-----------------------------------------------------------------------
   ln_trabbl   = .true.    !  Bottom Boundary Layer parameterisation flag
      nn_bbl_ldf  =  1        !  diffusive bbl (=1)   or not (=0)
      nn_bbl_adv  =  0        !  advective bbl (=1/2) or not (=0)
      rn_ahtbbl   =  1000.    !  lateral mixing coefficient in the bbl  [m2/s]
      rn_gambbl   =  10.      !  advective bbl coefficient                 [s]
/
!!======================================================================
!!                        Tracer (T & S) namelists                    !!
!!                                                                    !!
!!   nameos        equation of state                                    (default: NO selection)
!!   namtra_adv    advection scheme                                     (default: NO selection)
!!   namtra_ldf    lateral diffusion scheme                             (default: NO selection)
!!   namtra_mle    mixed layer eddy param. (Fox-Kemper param.)          (default: OFF)
!!   namtra_eiv    eddy induced velocity param.                         (default: OFF)
!!   namtra_dmp    T & S newtonian damping                              (default: OFF)
!!======================================================================
!
!-----------------------------------------------------------------------
&nameos        !   ocean Equation Of Seawater                           (default: NO selection)
!-----------------------------------------------------------------------
   ln_eos80    = .true.          !  = Use EOS80
/
!-----------------------------------------------------------------------
&namtra_adv    !   advection scheme for tracer                          (default: NO selection)
!-----------------------------------------------------------------------
   ln_traadv_fct = .true.     !  FCT scheme
      nn_fct_h   =  2               !  =2/4, horizontal 2nd / 4th order 
      nn_fct_v   =  2               !  =2/4, vertical   2nd / COMPACT 4th order 
/
!-----------------------------------------------------------------------
&namtra_ldf    !   lateral diffusion scheme for tracers                 (default: NO selection)
!-----------------------------------------------------------------------
   !                       !  Operator type:
   ln_traldf_lap   = .true.    !    laplacian operator
   !                       !  Direction of action:
   ln_traldf_iso   = .true.    !  iso-neutral (Standard operator)
   !		       	         !  iso-neutral options:        
   ln_traldf_msc   = .true.    !  Method of Stabilizing Correction      (both operators)
   !                       !  Coefficients:
   nn_aht_ijk_t    = 20        !  space/time variation of eddy coef
      !                             !   = 20     aht = 1/2  Ud. max(e1,e2)
      !                        !  time invariant coefficients:  aht0 = 1/2  Ud*Ld   (lap case)
      !                             !                           or   = 1/12 Ud*Ld^3 (blp case)
      rn_Ud        = 0.021         !  lateral diffusive velocity [m/s] (nn_aht_ijk_t= 0, 10, 20, 30)
      !rn_Ld        = 60.e+3        !  lateral diffusive length   [m]   (nn_aht_ijk_t= 0, 10)
/
!-----------------------------------------------------------------------
&namtra_mle    !   mixed layer eddy parametrisation (Fox-Kemper)       (default: OFF)
!-----------------------------------------------------------------------
   ln_mle      = .false.   ! (T) use the Mixed Layer Eddy (MLE) parameterisation
/
!-----------------------------------------------------------------------
&namtra_eiv    !   eddy induced velocity param.                         (default: OFF)
!-----------------------------------------------------------------------
   ln_ldfeiv   = .false.   ! use eddy induced velocity parameterization
/
!-----------------------------------------------------------------------
&namtra_dmp    !   tracer: T & S newtonian damping                      (default: OFF)
!-----------------------------------------------------------------------
   ln_tradmp   =  .false.   !  add a damping term (using resto.nc coef.)
/
!!======================================================================
!!                      ***  Dynamics namelists  ***                  !!
!!                                                                    !!
!!   nam_vvl       vertical coordinate options                          (default: z-star)
!!   namdyn_adv    formulation of the momentum advection                (default: NO selection)
!!   namdyn_vor    advection scheme                                     (default: NO selection)
!!   namdyn_hpg    hydrostatic pressure gradient                        (default: NO selection)
!!   namdyn_spg    surface pressure gradient                            (default: NO selection)
!!   namdyn_ldf    lateral diffusion scheme                             (default: NO selection)
!!   namdta_dyn    offline TOP: dynamics read in files                  (OFF_SRC only)
!!======================================================================
!
!-----------------------------------------------------------------------
&nam_vvl       !   vertical coordinate options                          (default: z-star)
!-----------------------------------------------------------------------
   ln_vvl_zstar  = .true.           !  z-star vertical coordinate
/
!-----------------------------------------------------------------------
&namdyn_adv    !   formulation of the momentum advection                (default: NO selection)
!-----------------------------------------------------------------------
   ln_dynadv_vec = .true.  !  vector form - 2nd centered scheme
     nn_dynkeg     = 0        ! grad(KE) scheme: =0   C2  ;  =1   Hollingsworth correction
/
!-----------------------------------------------------------------------
&namdyn_vor    !   Vorticity / Coriolis scheme                          (default: NO selection)
!-----------------------------------------------------------------------
   ln_dynvor_een = .true.  !  energy & enstrophy scheme
   !
   nn_e3f_typ = 0          !  type of e3f (EEN, ENE, ENS, MIX only)  =0  e3f = mi(mj(e3t))/4
   !                       !                                         =1  e3f = mi(mj(e3t))/mi(mj( tmask))
/
!-----------------------------------------------------------------------
&namdyn_hpg    !   Hydrostatic pressure gradient option                 (default: NO selection)
!-----------------------------------------------------------------------
   ln_hpg_zps  = .false.   !  z-coordinate - partial steps (interpolation)
   ln_hpg_sco  = .true.   !  s-coordinate (standard jacobian formulation)
/
!-----------------------------------------------------------------------
&namdyn_spg    !   surface pressure gradient                            (default: NO selection)
!-----------------------------------------------------------------------
   ln_dynspg_ts   = .true.   ! split-explicit free surface
      ln_bt_fw      = .true.     ! Forward integration of barotropic Eqs.
      ln_bt_av      = .true.     ! Time filtering of barotropic variables
         nn_bt_flt     = 1          ! Time filter choice  = 0 None
         !                          !                     = 1 Boxcar over   nn_e sub-steps
         !                          !                     = 2 Boxcar over 2*nn_e  "    "
      ln_bt_auto    = .true.     ! Number of sub-step defined from:
         rn_bt_cmax   =  0.8        ! =T : the Maximum Courant Number allowed
         nn_e         = 30          ! =F : the number of sub-step in rn_Dt seconds
      rn_bt_alpha   = 0.         ! Temporal diffusion parameter (if ln_bt_av=F)
/
!-----------------------------------------------------------------------
&namdyn_ldf    !   lateral diffusion on momentum                        (default: NO selection)
!-----------------------------------------------------------------------
   !                       !  Type of the operator :
   ln_dynldf_blp = .true.     !  bilaplacian operator
   !                       !  Direction of action  :
   ln_dynldf_hor = .true.     !  horizontal  (geopotential)
   !                       !  Coefficient
   nn_ahm_ijk_t  = 20         !  space/time variation of eddy coef
      !                        !  time invariant coefficients :  ahm = 1/2  Uv*Lv   (lap case)
      !                             !                            or  = 1/12 Uv*Lv^3 (blp case)
      rn_Uv      = 0.1              !  lateral viscous velocity [m/s] (nn_ahm_ijk_t= 0, 10, 20, 30)
      !rn_Lv      = 130.e+4           !  lateral viscous length   [m]   (nn_ahm_ijk_t= 0, 10)
      !                       !  iso-neutral laplacian operator (ln_dynldf_iso=T) :
      rn_ahm_b      = 0.0         !  background eddy viscosity  [m2/s]
/
!!======================================================================
!!                     vertical physics namelists                     !!
!!                                                                    !!
!!    namzdf        vertical physics manager                            (default: NO selection)
!!    namzdf_ric    richardson number vertical mixing                   (ln_zdfric=T)
!!    namzdf_tke    TKE vertical mixing                                 (ln_zdftke=T)